REMARK  Name = /home/nauevech/Documents/protein_preparation/protein_preparation/protein_preprocessing/output/1d3g_ligand.pdb
REMARK  5 active torsions:
REMARK  status: ('A' for Active; 'I' for Inactive)
REMARK    1  A    between atoms: C_1  and  C_4
REMARK    2  A    between atoms: O_5  and  C_8
REMARK    3  A    between atoms: C_6  and  C_26
REMARK    4  A    between atoms: C_7  and  C_8
REMARK    5  A    between atoms: C_19  and  C_20
REMARK                            x       y       z     vdW  Elec       q    Type
REMARK                         _______ _______ _______ _____ _____    ______ ____
ROOT
ATOM      1  C   UNL     1       0.746   0.140   0.267  0.00  0.00    -0.037 C 
ATOM      2  N   UNL     1       4.299  -1.064  -0.272  0.00  0.00    -0.246 NA
ATOM      3  C   UNL     1       2.233   0.139   0.015  0.00  0.00    -0.010 A 
ATOM      4  C   UNL     1       2.947  -1.052  -0.168  0.00  0.00    +0.075 A 
ATOM      5  C   UNL     1       2.980   1.344  -0.020  0.00  0.00    +0.073 A 
ATOM      6  C   UNL     1       4.400   1.337  -0.143  0.00  0.00    +0.017 A 
ATOM      7  C   UNL     1       5.002   0.068  -0.243  0.00  0.00    +0.073 A 
ATOM      8  C   UNL     1       5.258   2.467  -0.171  0.00  0.00    -0.016 A 
ATOM      9  C   UNL     1       6.385  -0.047  -0.327  0.00  0.00    -0.033 A 
ATOM     10  C   UNL     1       6.640   2.322  -0.269  0.00  0.00    +0.124 A 
ATOM     11  C   UNL     1       7.214   1.069  -0.344  0.00  0.00    -0.024 A 
ATOM     12  F   UNL     1       7.423   3.408  -0.300  0.00  0.00    -0.205 F 
ENDROOT
BRANCH   4  18
ATOM     13  C   UNL     1       3.045  -3.513   0.296  0.00  0.00    -0.052 A 
ATOM     14  C   UNL     1       1.173  -2.689  -0.935  0.00  0.00    -0.052 A 
ATOM     15  C   UNL     1       2.524  -4.812   0.227  0.00  0.00    -0.053 A 
ATOM     16  C   UNL     1       0.629  -3.979  -0.964  0.00  0.00    -0.053 A 
ATOM     17  C   UNL     1       1.293  -5.072  -0.386  0.00  0.00    -0.018 A 
ATOM     18  C   UNL     1       2.369  -2.413  -0.260  0.00  0.00    +0.001 A 
BRANCH  17  19
ATOM     19  C   UNL     1       0.720  -6.438  -0.427  0.00  0.00    -0.018 A 
ATOM     20  C   UNL     1       0.956  -7.362   0.609  0.00  0.00    -0.054 A 
ATOM     21  C   UNL     1      -0.099  -6.866  -1.492  0.00  0.00    -0.054 A 
ATOM     22  C   UNL     1       0.422  -8.651   0.569  0.00  0.00    -0.061 A 
ATOM     23  C   UNL     1      -0.377  -9.047  -0.496  0.00  0.00    -0.062 A 
ATOM     24  C   UNL     1      -0.643  -8.152  -1.526  0.00  0.00    -0.061 A 
ENDBRANCH  17  19
ENDBRANCH   4  18
BRANCH   5  26
ATOM     25  O   UNL     1       2.672   3.515   0.926  0.00  0.00    -0.245 OA
ATOM     26  C   UNL     1       2.297   2.660   0.144  0.00  0.00    +0.338 C 
BRANCH  26  27
ATOM     27  O   UNL     1       1.242   2.841  -0.679  0.00  0.00    -0.477 OA
ATOM     28  H   UNL     1       0.984   2.158  -1.267  0.00  0.00    +0.000 HD
ENDBRANCH  26  27
ENDBRANCH   5  26
TORSDOF 4
