REMARK  Name = /home/nauevech/Documents/protein_preparation/protein_preparation/protein_preprocessing/output/6o0k_ligand.pdb
REMARK  19 active torsions:
REMARK  status: ('A' for Active; 'I' for Inactive)
REMARK    1  A    between atoms: C_10  and  C_120
REMARK    2  A    between atoms: O_19  and  S_121
REMARK    3  A    between atoms: O_20  and  S_122
REMARK    4  A    between atoms: N_23  and  C_87
REMARK    5  A    between atoms: N_23  and  C_93
REMARK    6  A    between atoms: N_24  and  C_88
REMARK    7  A    between atoms: N_24  and  C_94
REMARK    8  A    between atoms: N_29  and  C_85
REMARK    9  A    between atoms: N_30  and  C_86
REMARK   10  A    between atoms: C_33  and  C_45
REMARK   11  A    between atoms: C_34  and  C_46
REMARK   12  A    between atoms: O_43  and  C_71
REMARK   13  A    between atoms: O_43  and  C_105
REMARK   14  A    between atoms: O_44  and  C_72
REMARK   15  A    between atoms: O_44  and  C_106
REMARK   16  A    between atoms: C_81  and  S_121
REMARK   17  A    between atoms: C_82  and  S_122
REMARK   18  A    between atoms: C_93  and  C_95
REMARK   19  A    between atoms: C_94  and  C_96
REMARK                            x       y       z     vdW  Elec       q    Type
REMARK                         _______ _______ _______ _____ _____    ______ ____
ROOT
ATOM      1  N   UNL     1       3.891  10.898   3.593  0.00  0.00    -0.295 N 
ATOM      2  N   UNL     1       1.136  14.298  -1.448  0.00  0.00    -0.295 N 
ATOM      3  C   UNL     1       8.125  15.378   0.556  0.00  0.00    -0.046 C 
ATOM      4  C   UNL     1       7.164  16.425  -0.005  0.00  0.00    -0.046 C 
ATOM      5  O   UNL     1       1.447   3.389   3.722  0.00  0.00    -0.269 OA
ATOM      6  O   UNL     1      -0.674   5.808  -3.226  0.00  0.00    -0.269 OA
ATOM      7  C   UNL     1       7.383  14.024   0.580  0.00  0.00    -0.021 C 
ATOM      8  C   UNL     1       5.730  15.780  -0.178  0.00  0.00    -0.022 C 
ATOM      9  N   UNL     1       2.813   8.973   1.597  0.00  0.00    -0.327 N 
ATOM     10  N   UNL     1       0.086  11.802  -1.649  0.00  0.00    -0.327 N 
ATOM     11  O   UNL     1      -0.739   3.779   0.373  0.00  0.00    -0.123 OA
ATOM     12  O   UNL     1      -1.410   3.339  -0.854  0.00  0.00    -0.123 OA
ATOM     13  C   UNL     1       6.280  12.878   0.011  0.00  0.00    -0.025 C 
ATOM     14  C   UNL     1       5.682  14.237  -0.495  0.00  0.00    -0.016 C 
ATOM     15  N   UNL     1      -0.668   3.548   3.044  0.00  0.00    -0.227 N 
ATOM     16  N   UNL     1      -1.980   5.929  -1.262  0.00  0.00    -0.227 N 
ATOM     17  C   UNL     1       5.485  11.751   0.749  0.00  0.00    -0.026 C 
ATOM     18  C   UNL     1       4.268  13.731  -0.542  0.00  0.00    -0.023 C 
ATOM     19  C   UNL     1       5.622  11.981   2.208  0.00  0.00    -0.052 C 
ATOM     20  C   UNL     1       3.421  14.455  -1.449  0.00  0.00    -0.051 C 
ATOM     21  C   UNL     1       6.738  12.690   2.371  0.00  0.00    -0.039 C 
ATOM     22  C   UNL     1       3.846  15.626  -1.880  0.00  0.00    -0.039 C 
ATOM     23  C   UNL     1       6.514  14.088   1.994  0.00  0.00    -0.021 C 
ATOM     24  C   UNL     1       5.198  16.072  -1.534  0.00  0.00    -0.021 C 
ATOM     25  C   UNL     1       4.374  12.147   3.004  0.00  0.00    +0.021 C 
ATOM     26  C   UNL     1       2.323  13.659  -1.998  0.00  0.00    +0.021 C 
ATOM     27  C   UNL     1       4.627   9.668   3.227  0.00  0.00    +0.015 C 
ATOM     28  C   UNL     1       0.771  13.637  -0.178  0.00  0.00    +0.015 C 
ATOM     29  C   UNL     1       4.275   8.991   1.862  0.00  0.00    +0.025 C 
ATOM     30  C   UNL     1      -0.148  12.412  -0.338  0.00  0.00    +0.025 C 
ATOM     31  C   UNL     1       2.170  10.271   1.868  0.00  0.00    +0.025 C 
ATOM     32  C   UNL     1      -0.165  12.671  -2.822  0.00  0.00    +0.025 C 
ATOM     33  C   UNL     1       2.457  10.715   3.318  0.00  0.00    +0.015 C 
ATOM     34  C   UNL     1       0.091  14.150  -2.461  0.00  0.00    +0.015 C 
ATOM     35  C   UNL     1       2.108   7.894   2.140  0.00  0.00    +0.033 A 
ATOM     36  C   UNL     1      -0.240  10.468  -1.755  0.00  0.00    +0.033 A 
ATOM     37  C   UNL     1       0.773   7.635   1.805  0.00  0.00    +0.002 A 
ATOM     38  C   UNL     1      -1.468  10.068  -2.278  0.00  0.00    +0.002 A 
ATOM     39  C   UNL     1       0.106   6.512   2.320  0.00  0.00    +0.142 A 
ATOM     40  C   UNL     1      -1.643   8.731  -2.597  0.00  0.00    +0.142 A 
ATOM     41  C   UNL     1       0.834   5.530   2.963  0.00  0.00    +0.080 A 
ATOM     42  C   UNL     1      -0.793   7.772  -2.078  0.00  0.00    +0.080 A 
ATOM     43  C   UNL     1       2.080   5.913   3.509  0.00  0.00    -0.044 A 
ATOM     44  C   UNL     1       0.450   8.140  -1.576  0.00  0.00    -0.044 A 
ATOM     45  C   UNL     1       2.695   7.058   3.084  0.00  0.00    -0.040 A 
ATOM     46  C   UNL     1       0.735   9.498  -1.463  0.00  0.00    -0.040 A 
ATOM     47  C   UNL     1       0.563   4.107   3.249  0.00  0.00    +0.259 C 
ATOM     48  C   UNL     1      -1.142   6.371  -2.257  0.00  0.00    +0.259 C 
ATOM     49  C   UNL     1       7.148  14.149  -1.133  0.00  0.00    -0.040 C 
ATOM     50  C   UNL     1       4.879  16.453   0.913  0.00  0.00    -0.059 C 
ATOM     51  S   UNL     1      -0.848   2.714   1.606  0.00  0.00    +0.112 S 
ATOM     52  S   UNL     1      -2.583   4.375  -1.337  0.00  0.00    +0.112 S 
ATOM     53  H   UNL     1       4.065  11.020   4.590  0.00  0.00    +0.000 HD
ATOM     54  H   UNL     1       1.281  15.286  -1.238  0.00  0.00    +0.000 HD
ATOM     55  H   UNL     1      -1.399   3.632   3.698  0.00  0.00    +0.000 HD
ATOM     56  H   UNL     1      -2.222   6.522  -0.515  0.00  0.00    +0.000 HD
ENDROOT
BRANCH  21  58
ATOM     57 CL   UNL     1      11.445   9.995   1.407  0.00  0.00    -0.084 Cl
ATOM     58  C   UNL     1       7.853  11.816   2.111  0.00  0.00    -0.022 A 
ATOM     59  C   UNL     1       9.026  12.496   2.053  0.00  0.00    -0.053 A 
ATOM     60  C   UNL     1       9.818  12.109   1.319  0.00  0.00    -0.043 A 
ATOM     61  C   UNL     1      10.019  10.837   1.051  0.00  0.00    +0.041 A 
ATOM     62  C   UNL     1       8.837  10.305   0.977  0.00  0.00    -0.043 A 
ATOM     63  C   UNL     1       8.062  10.574   1.901  0.00  0.00    -0.053 A 
ENDBRANCH  21  58
BRANCH  22  65
ATOM     64 CL   UNL     1       3.743  17.073  -6.855  0.00  0.00    -0.084 Cl
ATOM     65  C   UNL     1       3.500  16.096  -3.172  0.00  0.00    -0.022 A 
ATOM     66  C   UNL     1       3.017  17.413  -3.392  0.00  0.00    -0.053 A 
ATOM     67  C   UNL     1       3.159  17.997  -4.565  0.00  0.00    -0.043 A 
ATOM     68  C   UNL     1       3.989  17.226  -5.291  0.00  0.00    +0.041 A 
ATOM     69  C   UNL     1       4.811  16.143  -5.004  0.00  0.00    -0.043 A 
ATOM     70  C   UNL     1       4.290  15.377  -4.063  0.00  0.00    -0.053 A 
ENDBRANCH  22  65
BRANCH  52  71
ATOM     71  C   UNL     1      -3.983   4.057  -0.379  0.00  0.00    +0.060 A 
ATOM     72  C   UNL     1      -4.781   5.093   0.067  0.00  0.00    -0.012 A 
ATOM     73  C   UNL     1      -5.824   4.786   0.951  0.00  0.00    +0.148 A 
ATOM     74  C   UNL     1      -5.918   3.497   1.541  0.00  0.00    +0.058 A 
ATOM     75  C   UNL     1      -5.249   2.456   0.904  0.00  0.00    -0.037 A 
ATOM     76  C   UNL     1      -4.311   2.735  -0.089  0.00  0.00    -0.042 A 
BRANCH  73  77
ATOM     77  N   UNL     1      -6.866   5.821   1.152  0.00  0.00    +0.058 N 
ATOM     78  O   UNL     1      -6.824   6.819   0.412  0.00  0.00    -0.126 OA
ATOM     79  O   UNL     1      -7.737   5.644   2.012  0.00  0.00    -0.126 OA
ENDBRANCH  73  77
BRANCH  74  80
ATOM     80  N   UNL     1      -6.601   3.289   2.710  0.00  0.00    -0.342 N 
ATOM     81  H   UNL     1      -6.892   4.117   3.157  0.00  0.00    +0.000 HD
BRANCH  80  82
ATOM     82  C   UNL     1      -6.979   2.062   3.419  0.00  0.00    +0.012 C 
BRANCH  82  84
ATOM     83  O   UNL     1     -10.363   1.361   4.927  0.00  0.00    -0.380 OA
ATOM     84  C   UNL     1      -7.552   2.552   4.709  0.00  0.00    -0.021 C 
ATOM     85  C   UNL     1      -8.811   3.309   4.362  0.00  0.00    -0.025 C 
ATOM     86  C   UNL     1      -9.972   2.381   4.166  0.00  0.00    +0.048 C 
ATOM     87  C   UNL     1      -9.160   0.824   5.194  0.00  0.00    +0.048 C 
ATOM     88  C   UNL     1      -7.786   1.317   5.481  0.00  0.00    -0.025 C 
ENDBRANCH  82  84
ENDBRANCH  80  82
ENDBRANCH  74  80
ENDBRANCH  52  71
BRANCH  51  89
ATOM     89  C   UNL     1       0.148   1.312   1.278  0.00  0.00    +0.060 A 
ATOM     90  C   UNL     1       0.985   0.668   2.189  0.00  0.00    -0.012 A 
ATOM     91  C   UNL     1       1.926  -0.240   1.660  0.00  0.00    +0.148 A 
ATOM     92  C   UNL     1       2.169  -0.255   0.288  0.00  0.00    +0.058 A 
ATOM     93  C   UNL     1       1.090   0.036  -0.532  0.00  0.00    -0.037 A 
ATOM     94  C   UNL     1       0.061   0.814  -0.024  0.00  0.00    -0.042 A 
BRANCH  91  95
ATOM     95  N   UNL     1       2.557  -1.277   2.488  0.00  0.00    +0.058 N 
ATOM     96  O   UNL     1       2.967  -0.921   3.602  0.00  0.00    -0.126 OA
ATOM     97  O   UNL     1       2.595  -2.455   2.048  0.00  0.00    -0.126 OA
ENDBRANCH  91  95
BRANCH  92  98
ATOM     98  N   UNL     1       3.430  -0.073  -0.298  0.00  0.00    -0.342 N 
ATOM     99  H   UNL     1       3.708  -0.585  -1.092  0.00  0.00    +0.000 HD
BRANCH  98 100
ATOM    100  C   UNL     1       4.310   0.911   0.322  0.00  0.00    +0.012 C 
BRANCH 100 102
ATOM    101  O   UNL     1       5.100   4.577  -1.360  0.00  0.00    -0.380 OA
ATOM    102  C   UNL     1       5.046   1.666  -0.797  0.00  0.00    -0.021 C 
ATOM    103  C   UNL     1       4.022   2.373  -1.711  0.00  0.00    -0.025 C 
ATOM    104  C   UNL     1       4.569   3.656  -2.316  0.00  0.00    +0.048 C 
ATOM    105  C   UNL     1       5.377   4.030  -0.074  0.00  0.00    +0.048 C 
ATOM    106  C   UNL     1       6.034   2.666  -0.188  0.00  0.00    -0.025 C 
ENDBRANCH 100 102
ENDBRANCH  98 100
ENDBRANCH  92  98
ENDBRANCH  51  89
BRANCH  52 107
ATOM    107  O   UNL     1      -2.956   3.977  -2.854  0.00  0.00    -0.308 OA
ATOM    108  H   UNL     1      -2.193   4.141  -3.429  0.00  0.00    +0.000 HD
ENDBRANCH  52 107
BRANCH  51 109
ATOM    109  O   UNL     1      -2.340   2.136   1.653  0.00  0.00    -0.308 OA
ATOM    110  H   UNL     1      -2.962   2.859   1.832  0.00  0.00    +0.000 HD
ENDBRANCH  51 109
BRANCH  39 111
ATOM    111  O   UNL     1      -1.270   6.549   2.260  0.00  0.00    -0.454 OA
BRANCH 111 114
ATOM    112  N   UNL     1      -4.186   6.859   4.488  0.00  0.00    -0.234 NA
ATOM    113  N   UNL     1      -4.156   6.543   6.889  0.00  0.00    -0.346 N 
ATOM    114  C   UNL     1      -1.949   6.651   3.468  0.00  0.00    +0.147 A 
ATOM    115  C   UNL     1      -3.330   6.845   3.424  0.00  0.00    +0.072 A 
ATOM    116  C   UNL     1      -3.564   6.595   5.654  0.00  0.00    +0.138 A 
ATOM    117  C   UNL     1      -2.210   6.367   5.844  0.00  0.00    +0.022 A 
ATOM    118  C   UNL     1      -1.372   6.509   4.733  0.00  0.00    -0.007 A 
ATOM    119  C   UNL     1      -2.022   6.003   7.201  0.00  0.00    -0.035 A 
ATOM    120  C   UNL     1      -3.231   6.171   7.837  0.00  0.00    +0.004 A 
ATOM    121  H   UNL     1      -5.103   6.743   7.071  0.00  0.00    +0.000 HD
ENDBRANCH 111 114
ENDBRANCH  39 111
BRANCH  40 122
ATOM    122  O   UNL     1      -2.410   8.451  -3.718  0.00  0.00    -0.454 OA
BRANCH 122 125
ATOM    123  N   UNL     1      -2.164   9.154  -7.323  0.00  0.00    -0.234 NA
ATOM    124  N   UNL     1      -0.192   9.921  -8.492  0.00  0.00    -0.346 N 
ATOM    125  C   UNL     1      -1.783   8.767  -4.927  0.00  0.00    +0.147 A 
ATOM    126  C   UNL     1      -2.568   8.788  -6.073  0.00  0.00    +0.072 A 
ATOM    127  C   UNL     1      -0.856   9.473  -7.379  0.00  0.00    +0.138 A 
ATOM    128  C   UNL     1       0.062   9.432  -6.341  0.00  0.00    +0.022 A 
ATOM    129  C   UNL     1      -0.422   9.082  -5.075  0.00  0.00    -0.007 A 
ATOM    130  C   UNL     1       1.330   9.786  -6.875  0.00  0.00    -0.035 A 
ATOM    131  C   UNL     1       1.134  10.126  -8.195  0.00  0.00    +0.004 A 
ATOM    132  H   UNL     1      -0.605  10.073  -9.372  0.00  0.00    +0.000 HD
ENDBRANCH 122 125
ENDBRANCH  40 122
TORSDOF 18
